%nprocshared=24
%mem=92GB
%chk=Y1opt.chk
# opt freq b3lyp/6-311G(d,p) int=(ultrafine,acc2e=11) nosymm

Y1opt

0 1
 S                 13.25553500    9.81100100   16.67175600
 S                 12.87804700   14.62976100   14.48063600
 S                 11.66765100   18.43558600   15.92077800
 S                 12.65085200   10.18897100   21.93116900
 S                 12.57074000   13.43894000   24.66129100
 N                 12.96345500   10.07204200   18.28001100
 N                 13.20894700   11.37903300   16.14353700
 O                 11.00706400   21.03327900   16.00350500
 N                 12.10031600   15.53189000   18.16838400
 C                 12.82440900   11.37946700   18.43426300
 N                 12.59417100   13.95051900   20.99989800
 O                 12.49959100   14.84438500   26.94424900
 C                 12.96609000   12.13126300   17.20522200
 C                 12.64129600   12.08381400   19.66666700
 C                 12.66318500   14.51616800   16.20830500
 F                 12.38519800   17.55217900   31.54320100
 C                 12.10752200   16.76291400   15.87032600
 F                  9.70147700   26.20919900   16.06186700
 C                 12.75854500   13.54727200   17.22512900
 C                 12.52366200   14.17003900   27.96061300
 C                 12.40931900   16.33580800   14.56710700
 C                 12.56797500   13.50276600   19.68048000
 C                 12.45361500   14.21285900   18.44331100
 C                 12.60659700   12.53285000   23.18764300
 F                  9.83370100   26.80198300   13.45623800
 C                 12.62724800   11.67214700   21.01294200
 C                 11.28770500   21.00996100   13.59331600
 C                 11.66977800   19.70319800   13.34740600
 C                 12.26031800   15.71683600   16.80166100
 C                 12.60045100   12.82172600   21.80867400
 C                 10.98884600   21.59080100   14.91844700
 C                 12.62803000   11.14831900   23.42001700
 N                 11.91774600   19.87284900    9.90442400
 F                 12.46646400   15.55273800   33.31900700
 C                 12.28707500   17.32291900   13.58606100
 C                 11.87805600   18.56011900   14.14826100
 C                 12.57836300   12.69791200   28.07321200
 C                 11.11547900   22.06633000   12.59492900
 C                 11.62405100   20.81002500   10.51681800
 C                 12.59992200   12.36076000   29.49743500
 C                 12.60179400   11.80331100   27.01825900
 C                 12.60639000   17.07166800   12.13601600
 C                 12.66410900   11.11425300   30.09126300
 C                 12.59741100   11.92286600   25.61199600
 C                 13.11066200   15.24295400   21.49254500
 C                 14.58427100   15.24669300   21.95770700
 C                 10.65291500   23.01408500   14.69406100
 C                 10.72687300   23.30250700   13.32445100
 C                 10.44753500   24.60028900   12.88559500
 C                 10.10703600   25.54865200   13.83793500
 C                 10.03747700   25.24125400   15.20100200
 C                 10.31162700   23.96073300   15.64752700
 C                 12.62377400   10.78211000   24.76835600
 C                 14.07681600   17.38136100   11.77657600
 C                 12.54664700   13.64005100   30.25363400
 C                 12.50239100   14.70263900   29.34071300
 C                 12.44796400   16.03167800   29.73108900
 C                 12.43702100   16.29428200   31.08946000
 C                 12.47980900   15.24697200   32.01609400
 C                 12.53489200   13.91833600   31.62379100
 C                 11.05592200   23.10333600   10.35314400
 C                 15.57563600   14.91231500   20.81476400
 N                 12.76169800    8.86497100   28.82906500
 C                 12.71767900    9.88561800   29.37306200
 N                 10.89974900   23.98153600    9.61659200
 C                 16.06424900   13.45804100   20.77474000
 C                 12.68542400   10.92044300   31.50312100
 C                 14.86766300   16.62837900   22.58890100
 N                 12.70402600   10.72351400   32.64286200
 C                 16.14748100   16.67561400   23.42908100
 C                 12.59900200    9.34513200   25.21787600
 C                 11.20638600   16.40085100   18.95888100
 C                 17.03589700   13.18065800   19.62206300
 C                 17.53633600   11.73374200   19.59041700
 C                 14.40434300   17.04523100   10.31790100
 C                  9.72799600   16.44068300   18.51014000
 C                 15.85525500   17.36311800    9.93885600
 C                  9.34181309   16.25603280   17.02095137
 C                  9.02023800   17.53020800   19.34688100
 C                  8.14862431   15.32855982   16.76477492
 C                  7.68205200   17.99986900   18.76285500
 C                  6.98498600   19.05774700   19.62688500
 C                  5.65932500   19.54131800   19.03250000
 C                 11.26028700   21.99243200   11.22232600
 C                 11.16732300    8.78878700   25.38586300
 C                 11.15833200    7.30314100   25.76071500
 C                  9.74485400    6.73453700   25.93050600
 C                  9.72852200    5.24646200   26.29854400
 C                  8.31748400    4.67225000   26.46926600
 C                  8.30155000    3.18441900   26.83796900
 C                  6.89122600    2.60716000   27.00488100
 C                  6.87595600    1.11998900   27.37549900
 C                  5.46632100    0.54031500   27.54019100
 C                  5.46157000   -0.94538800   27.91129700
 C                 16.19124100   17.02367400    8.48206700
 C                 17.63702800   17.35312400    8.09364100
 C                 17.97364300   17.01295100    6.63725600
 C                 19.41771900   17.34696300    6.24611400
 C                 19.75469500   17.00637700    4.79010700
 C                 21.19802400   17.34181000    4.39725800
 C                 21.52537600   16.99827500    2.94124300
 H                 12.46277100   15.56124300   22.31435100
 H                 13.00862400   15.97325400   20.69479900
 H                 14.69545700   14.49884900   22.75069900
 H                 10.48103300   24.90928800   11.85174600
 H                 10.26101900   23.71352400   16.70054200
 H                 12.41473000   16.83551100   29.00633200
 H                 12.56587400   13.16298500   32.39445800
 H                 16.45321700   15.56017200   20.90733500
 H                 15.12376200   15.17314100   19.84956700
 H                 16.55698800   13.22351100   21.72692700
 H                 15.21413800   12.77261200   20.69848200
 H                 14.91799800   17.38249400   21.79309700
 H                 14.02470400   16.91296100   23.22905100
 H                 16.30324000   17.67575100   23.84111600
 H                 17.03475200   16.42162600   22.84333700
 H                 16.08859700   15.97587600   24.26755000
 H                 11.62634300   17.41049700   18.93350400
 H                 11.23363300   16.06112400   19.99035400
 H                 17.89183500   13.86239200   19.69865800
 H                 16.54395000   13.41755300   18.67098600
 H                 18.22661300   11.56947100   18.75880600
 H                 16.70600900   11.03016900   19.47714100
 H                 18.06305300   11.47687000   20.51469700
 H                  9.37643091   15.57052620   19.07522363
 H                 10.20578277   15.85251399   16.48538992
 H                  9.15264300   17.23774893   16.57043028
 H                  8.86569400   17.15591000   20.36784200
 H                  9.67694300   18.40413100   19.43705600
 H                  8.35126873   14.32248142   17.14378600
 H                  7.94761054   15.24386871   15.69354883
 H                  7.23419896   15.68300491   17.24354391
 H                  7.00604900   17.14694200   18.63090200
 H                  7.85705500   18.41012500   17.76066500
 H                  6.80832300   18.64712400   20.62840400
 H                  7.65782300   19.91293100   19.76238400
 H                  4.95172400   18.71442500   18.91717300
 H                  5.80866900   19.98876600   18.04510500
 H                  5.18821500   20.29404800   19.67001200
 H                 11.94832900   17.64628300   11.48047700
 H                 12.40160500   16.01816300   11.91804800
 H                 14.73854900   16.82118900   12.44687500
 H                 14.27489300   18.44259800   11.96195500
 H                 13.72601500   17.60273000    9.66287000
 H                 14.20826000   15.98001900   10.13931700
 H                 16.04764500   18.42920600   10.11413600
 H                 16.53555000   16.81625000   10.60469800
 H                 13.12814900    8.74422300   24.47057300
 H                 13.14785400    9.21179300   26.15251600
 H                 10.64731800    9.36573400   26.15822800
 H                 10.60858800    8.94229200   24.45569500
 H                 11.68714300    6.73184000   24.98672900
 H                 11.72138800    7.16655800   26.69040600
 H                  9.21791400    7.30398800   26.70660900
 H                  9.17711700    6.88451800   25.00291700
 H                 10.29498700    5.09877800   27.22649800
 H                 10.25902300    4.67691400   25.52449600
 H                  7.78644500    5.24201700   27.24267800
 H                  7.75131400    4.82066900   25.54049800
 H                  8.83588100    2.61508600   26.06638800
 H                  8.86518300    3.03692800   27.76811700
 H                  6.35613500    3.17714500   27.77543800
 H                  6.32809800    2.75339700   26.07394500
 H                  7.41250400    0.54926200   26.60625400
 H                  7.43714000    0.97327000   28.30754500
 H                  4.90585400    0.68563100   26.60862000
 H                  4.92994100    1.11019900   28.30863000
 H                  4.44287500   -1.32731800   28.02144100
 H                  5.96019200   -1.54620100   27.14415500
 H                  5.98494100   -1.11832300   28.85690600
 H                 16.00377100   15.95638200    8.30692900
 H                 15.50551200   17.56564100    7.81884900
 H                 17.82320400   18.42077600    8.26755400
 H                 18.32318200   16.81308400    8.75901800
 H                 17.28549700   17.55075400    5.97253500
 H                 17.78984300   15.94475600    6.46366400
 H                 19.60088000   18.41538700    6.41891900
 H                 20.10621300   16.80996200    6.91150800
 H                 19.57301000   15.93765000    4.61650900
 H                 19.06613400   17.54244400    4.12400200
 H                 21.37937100   18.40963100    4.56993200
 H                 21.88633100   16.80607900    5.06230800
 H                 22.56043300   17.24943700    2.69361800
 H                 21.38725700   15.93009500    2.74627900
 H                 20.87661900   17.54581400    2.25034800
 H                 11.86000300   19.47528500   12.30802700
 H                 12.63068400   10.76260700   27.30892300

